@<TRIPOS>MOLECULE
X
   22    21     1     0     0
SMALL
bcc


@<TRIPOS>ATOM
      1 H            3.0820     0.6350    -1.3020 hc         1 X         0.068700
      2 C            2.7550     1.6180    -0.9000 c3         1 X        -0.174100
      3 H1           2.0930     1.4490    -0.0250 hc         1 X         0.068700
      4 H2           2.1850     2.1450    -1.6930 hc         1 X         0.068700
      5 C1           3.9450     2.4300    -0.4810 c          1 X         0.657100
      6 O            4.9770     1.8590    -0.1590 o          1 X        -0.610100
      7 N            3.8700     3.7910    -0.4650 n          1 X        -0.553900
      8 H3           2.9950     4.2410    -0.7770 hn         1 X         0.320500
      9 C2           5.0050     4.6350    -0.1040 c3         1 X         0.033700
     10 H4           5.6180     4.1290     0.6740 h1         1 X         0.096700
     11 C3           5.8860     4.8360    -1.3480 c3         1 X        -0.102100
     12 H5           5.3300     5.3980    -2.1280 hc         1 X         0.051367
     13 H6           6.8240     5.3730    -1.1020 hc         1 X         0.051367
     14 H7           6.1890     3.8530    -1.7630 hc         1 X         0.051367
     15 C4           4.5040     5.9390     0.5140 c          1 X         0.630100
     16 O1           3.4200     5.9420     1.0830 o          1 X        -0.619100
     17 N1           5.2450     7.0850     0.4650 n          1 X        -0.566900
     18 H8           6.1650     7.0940     0.0080 hn         1 X         0.313500
     19 C5           4.7740     8.3290     1.0400 c3         1 X         0.076300
     20 H9           3.6680     8.4120     0.9840 h1         1 X         0.045700
     21 H10          5.1150     8.4050     2.0930 h1         1 X         0.045700
     22 H11          5.1980     9.1800     0.4660 h1         1 X         0.045700
@<TRIPOS>BOND
     1     1     2 1   
     2     2     3 1   
     3     2     4 1   
     4     2     5 1   
     5     5     6 2   
     6     5     7 1   
     7     7     8 1   
     8     7     9 1   
     9     9    10 1   
    10     9    11 1   
    11     9    15 1   
    12    11    12 1   
    13    11    13 1   
    14    11    14 1   
    15    15    16 2   
    16    15    17 1   
    17    17    18 1   
    18    17    19 1   
    19    19    20 1   
    20    19    21 1   
    21    19    22 1   
@<TRIPOS>SUBSTRUCTURE
     1 X           1 TEMP              0 ****  ****    0 ROOT
